*HEADING
PPR v0.4 bearing plate screening; SI units m N Pa
*NODE
1,0.000000,0.000000,0.000000
2,0.010000,0.000000,0.000000
3,0.020000,0.000000,0.000000
4,0.030000,0.000000,0.000000
5,0.040000,0.000000,0.000000
6,0.050000,0.000000,0.000000
7,0.060000,0.000000,0.000000
8,0.070000,0.000000,0.000000
9,0.080000,0.000000,0.000000
10,0.090000,0.000000,0.000000
11,0.100000,0.000000,0.000000
12,0.110000,0.000000,0.000000
13,0.120000,0.000000,0.000000
14,0.000000,0.010000,0.000000
15,0.010000,0.010000,0.000000
16,0.020000,0.010000,0.000000
17,0.030000,0.010000,0.000000
18,0.040000,0.010000,0.000000
19,0.050000,0.010000,0.000000
20,0.060000,0.010000,0.000000
** ... 409 like lines cut
*ELEMENT,TYPE=C3D8,ELSET=EALL
1,1,2,15,14,144,145,158,157
2,2,3,16,15,145,146,159,158
3,3,4,17,16,146,147,160,159
4,4,5,18,17,147,148,161,160
5,5,6,19,18,148,149,162,161
6,6,7,20,19,149,150,163,162
7,7,8,21,20,150,151,164,163
8,8,9,22,21,151,152,165,164
9,9,10,23,22,152,153,166,165
10,10,11,24,23,153,154,167,166
11,11,12,25,24,154,155,168,167
12,12,13,26,25,155,156,169,168
13,14,15,28,27,157,158,171,170
14,15,16,29,28,158,159,172,171
15,16,17,30,29,159,160,173,172
16,17,18,31,30,160,161,174,173
17,18,19,32,31,161,162,175,174
18,19,20,33,32,162,163,176,175
19,20,21,34,33,163,164,177,176
20,21,22,35,34,164,165,178,177
** ... 220 like lines cut
*NSET,NSET=FIXED
1,14,27,40,53,66,79,92,105,118,131,144,157,170,183,196
209,222,235,248,261,274,287,300,313,326,339,352,365,378,391,404
417
*NSET,NSET=LOADED
65,78,91,208,221,234,351,364,377
*SOLID SECTION,ELSET=EALL,MATERIAL=S275

*MATERIAL,NAME=S275
*ELASTIC
2.05E11,0.30
*BOUNDARY
FIXED,1,3,0
*STEP
*STATIC
0.1,1.0
*CLOAD
LOADED,3,-158.440026257
*NODE FILE,NSET=LOADED
U
*EL FILE
S
*END STEP
