*HEADING
PPR v0.4 cutter shaft screening; SI units m N Pa
*NODE
1,0.000000,0,0
2,0.010000,0,0
3,0.020000,0,0
4,0.030000,0,0
*ELEMENT,TYPE=B31,ELSET=EALL
1,1,2
2,2,3
3,3,4
*NSET,NSET=FIXED
1
*NSET,NSET=FREE
4
*BEAM SECTION,ELSET=EALL,MATERIAL=S45C,SECTION=RECT
0.01772,0.01772
0,0,1
*MATERIAL,NAME=S45C
*ELASTIC
2.05E11,0.29
*BOUNDARY
FIXED,1,6,0
*STEP
*STATIC
0.1,1.0
*CLOAD
FREE,3,-1255.086741750
FREE,4,22.000000000
*NODE FILE
U
*EL FILE
S
*END STEP
