*HEADING
v0.8 free thermal expansion qualification; SI
*NODE
1,0.000000000,0,0
2,0.012500000,0,0
3,0.025000000,0,0
4,0.037500000,0,0
5,0.050000000,0,0
6,0.062500000,0,0
7,0.075000000,0,0
8,0.087500000,0,0
9,0.100000000,0,0
10,0.112500000,0,0
11,0.125000000,0,0
12,0.137500000,0,0
13,0.150000000,0,0
14,0.162500000,0,0
15,0.175000000,0,0
16,0.187500000,0,0
17,0.200000000,0,0
18,0.212500000,0,0
19,0.225000000,0,0
20,0.237500000,0,0
** ... 9 like lines cut
*ELEMENT,TYPE=B32,ELSET=EALL
1,1,2,3
2,3,4,5
3,5,6,7
4,7,8,9
5,9,10,11
6,11,12,13
7,13,14,15
8,15,16,17
9,17,18,19
10,19,20,21
11,21,22,23
12,23,24,25
13,25,26,27
14,27,28,29
*NSET,NSET=FIXED
1
*NSET,NSET=FREE
29
*NSET,NSET=NALL,GENERATE
1,29,1
*BEAM SECTION,ELSET=EALL,MATERIAL=STEEL,SECTION=CIRC
0.008,0.008
0,0,1
*MATERIAL,NAME=STEEL
*ELASTIC
205000000000.0,0.29
*EXPANSION
1.2e-05
*INITIAL CONDITIONS,TYPE=TEMPERATURE
NALL,20
*BOUNDARY
FIXED,1,6,0
FREE,2,6,0
*STEP
*STATIC
0.1,1
*TEMPERATURE
NALL,270.0
*NODE PRINT,NSET=FREE
U
*END STEP
