*HEADING
PET uncalibrated coupon sensitivity
*NODE
1,0.0,0,0
2,0.0,5.0,0
3,0.0,5.0,1.0
4,0.0,0,1.0
5,1.25,0,0
6,1.25,5.0,0
7,1.25,5.0,1.0
8,1.25,0,1.0
9,2.5,0,0
10,2.5,5.0,0
11,2.5,5.0,1.0
12,2.5,0,1.0
13,3.75,0,0
14,3.75,5.0,0
15,3.75,5.0,1.0
16,3.75,0,1.0
17,5.0,0,0
18,5.0,5.0,0
19,5.0,5.0,1.0
20,5.0,0,1.0
** ... 48 like lines cut
*ELEMENT,TYPE=C3D8,ELSET=ALL
1,1,5,6,2,4,8,7,3
2,5,9,10,6,8,12,11,7
3,9,13,14,10,12,16,15,11
4,13,17,18,14,16,20,19,15
5,17,21,22,18,20,24,23,19
6,21,25,26,22,24,28,27,23
7,25,29,30,26,28,32,31,27
8,29,33,34,30,32,36,35,31
9,33,37,38,34,36,40,39,35
10,37,41,42,38,40,44,43,39
11,41,45,46,42,44,48,47,43
12,45,49,50,46,48,52,51,47
13,49,53,54,50,52,56,55,51
14,53,57,58,54,56,60,59,55
15,57,61,62,58,60,64,63,59
16,61,65,66,62,64,68,67,63
*NSET,NSET=LEFT
1,2,3,4
*NSET,NSET=RIGHT
65,66,67,68
*MATERIAL,NAME=PET
*ELASTIC
2500.0,0.38
*SOLID SECTION,ELSET=ALL,MATERIAL=PET
*STEP,NLGEOM=YES,INC=200
*STATIC
.05,1.,1e-8,.1
*BOUNDARY
LEFT,1,3,0
RIGHT,1,1,0.2
*NODE PRINT,NSET=RIGHT
RF,U
*EL PRINT,ELSET=ALL
S,E
*END STEP
