*HEADING
v0.8 torsion qualification; SI
*NODE
1,0.000000000,-0.010000000,-0.010000000
2,0.000000000,-0.010000000,-0.006666667
3,0.000000000,-0.010000000,-0.003333333
4,0.000000000,-0.010000000,0.000000000
5,0.000000000,-0.010000000,0.003333333
6,0.000000000,-0.010000000,0.006666667
7,0.000000000,-0.010000000,0.010000000
8,0.000000000,-0.006666667,-0.010000000
9,0.000000000,-0.006666667,-0.006666667
10,0.000000000,-0.006666667,-0.003333333
11,0.000000000,-0.006666667,0.000000000
12,0.000000000,-0.006666667,0.003333333
13,0.000000000,-0.006666667,0.006666667
14,0.000000000,-0.006666667,0.010000000
15,0.000000000,-0.003333333,-0.010000000
16,0.000000000,-0.003333333,-0.006666667
17,0.000000000,-0.003333333,-0.003333333
18,0.000000000,-0.003333333,0.000000000
19,0.000000000,-0.003333333,0.003333333
20,0.000000000,-0.003333333,0.006666667
** ... 1205 like lines cut
*ELEMENT,TYPE=C3D8,ELSET=EALL
1,1,50,57,8,2,51,58,9
2,2,51,58,9,3,52,59,10
3,3,52,59,10,4,53,60,11
4,4,53,60,11,5,54,61,12
5,5,54,61,12,6,55,62,13
6,6,55,62,13,7,56,63,14
7,8,57,64,15,9,58,65,16
8,9,58,65,16,10,59,66,17
9,10,59,66,17,11,60,67,18
10,11,60,67,18,12,61,68,19
11,12,61,68,19,13,62,69,20
12,13,62,69,20,14,63,70,21
13,15,64,71,22,16,65,72,23
14,16,65,72,23,17,66,73,24
15,17,66,73,24,18,67,74,25
16,18,67,74,25,19,68,75,26
17,19,68,75,26,20,69,76,27
18,20,69,76,27,21,70,77,28
19,22,71,78,29,23,72,79,30
20,23,72,79,30,24,73,80,31
** ... 844 like lines cut
*NSET,NSET=FIXED
1,2,3,4,5,6,7,8,9,10,11,12,13,14,15,16
17,18,19,20,21,22,23,24,25,26,27,28,29,30,31,32
33,34,35,36,37,38,39,40,41,42,43,44,45,46,47,48
49
*NSET,NSET=FREE
1177,1178,1179,1180,1181,1182,1183,1184,1185,1186,1187,1188,1189,1190,1191,1192
1193,1194,1195,1196,1197,1198,1199,1200,1201,1202,1203,1204,1205,1206,1207,1208
1209,1210,1211,1212,1213,1214,1215,1216,1217,1218,1219,1220,1221,1222,1223,1224
1225
*SOLID SECTION,ELSET=EALL,MATERIAL=STEEL
*MATERIAL,NAME=STEEL
*ELASTIC
205000000000.0,0.29
*BOUNDARY
FIXED,1,6,0
*STEP
*STATIC
0.1,1
*CLOAD
1177,2,50.5102040816
1177,3,-50.5102040816
1178,2,33.6734693878
1178,3,-50.5102040816
1179,2,16.8367346939
1179,3,-50.5102040816
1180,2,-0
1180,3,-50.5102040816
1181,2,-16.8367346939
1181,3,-50.5102040816
1182,2,-33.6734693878
1182,3,-50.5102040816
1183,2,-50.5102040816
1183,3,-50.5102040816
1184,2,50.5102040816
1184,3,-33.6734693878
1185,2,33.6734693878
1185,3,-33.6734693878
1186,2,16.8367346939
1186,3,-33.6734693878
** ... 78 like lines cut
*NODE PRINT,NSET=FREE
U
*NODE PRINT,NSET=FIXED,TOTALS=YES
RF
*END STEP
