*HEADING
v0.8 cantilever modal qualification; SI
*NODE
1,0.000000000,0,0
2,0.007500000,0,0
3,0.015000000,0,0
4,0.022500000,0,0
5,0.030000000,0,0
6,0.037500000,0,0
7,0.045000000,0,0
8,0.052500000,0,0
9,0.060000000,0,0
10,0.067500000,0,0
11,0.075000000,0,0
12,0.082500000,0,0
13,0.090000000,0,0
14,0.097500000,0,0
15,0.105000000,0,0
16,0.112500000,0,0
17,0.120000000,0,0
18,0.127500000,0,0
19,0.135000000,0,0
20,0.142500000,0,0
** ... 61 like lines cut
*ELEMENT,TYPE=B32,ELSET=EALL
1,1,2,3
2,3,4,5
3,5,6,7
4,7,8,9
5,9,10,11
6,11,12,13
7,13,14,15
8,15,16,17
9,17,18,19
10,19,20,21
11,21,22,23
12,23,24,25
13,25,26,27
14,27,28,29
15,29,30,31
16,31,32,33
17,33,34,35
18,35,36,37
19,37,38,39
20,39,40,41
** ... 20 like lines cut
*NSET,NSET=FIXED
1
*BEAM SECTION,ELSET=EALL,MATERIAL=STEEL,SECTION=CIRC
0.02,0.02
0,0,1
*MATERIAL,NAME=STEEL
*ELASTIC
205000000000.0,0.29
*DENSITY
7850.0
*BOUNDARY
FIXED,1,6,0
*STEP
*FREQUENCY
3
*NODE FILE
U
*END STEP
